# automatically generated by g-sorcery
# please do not edit this file

EAPI=8

REALNAME="${PN}"
LITERALNAME="${PN}"
REALVERSION="${PV}"
DIGEST_SOURCES="yes"
PYTHON_COMPAT=( python{3_11,3_12,3_13,3_14} )
DISTUTILS_USE_PEP517=standalone

inherit python-r1 gs-pypi

DESCRIPTION="apexmf is a set of python modules for APEX-MODFLOW model evaluation and parameter estimation."

HOMEPAGE=""
LICENSE=""
SRC_URI="https://files.pythonhosted.org/packages/source/${REALNAME::1}/${REALNAME}/${REALNAME}-${REALVERSION}.tar.gz"
SOURCEFILE="${REALNAME}-${REALVERSION}.tar.gz"
RESTRICT="test"

SLOT="0"
KEYWORDS="~amd64 ~x86"

IUSE=""
DEPENDENCIES="dev-python/pandas[${PYTHON_USEDEP}]
	dev-python/numpy[${PYTHON_USEDEP}]
	dev-python/pyemu[${PYTHON_USEDEP}]
	dev-python/flopy[${PYTHON_USEDEP}]
	dev-python/scipy[${PYTHON_USEDEP}]
	dev-python/matplotlib[${PYTHON_USEDEP}]
	dev-python/openpyxl[${PYTHON_USEDEP}]
	dev-python/hydroeval[${PYTHON_USEDEP}]
	dev-python/tqdm[${PYTHON_USEDEP}]
	dev-python/termcolor[${PYTHON_USEDEP}]
	dev-python/pyshp[${PYTHON_USEDEP}]"
BDEPEND="${DEPENDENCIES}"
RDEPEND="${DEPENDENCIES}"
