# automatically generated by g-sorcery
# please do not edit this file

EAPI=8

REALNAME="${PN}"
LITERALNAME="${PN}"
REALVERSION="${PV}"
DIGEST_SOURCES="yes"
PYTHON_COMPAT=( python{3_10,3_11,3_12} )
DISTUTILS_USE_PEP517=standalone

inherit python-r1 gs-pypi

DESCRIPTION="Python tools for MODFLOW development"

HOMEPAGE=""
LICENSE="CC0-1.0"
SRC_URI="https://files.pythonhosted.org/packages/source/${REALNAME::1}/${REALNAME}/${REALNAME//-/_}-${REALVERSION}.tar.gz"
SOURCEFILE="${REALNAME//-/_}-${REALVERSION}.tar.gz"
RESTRICT="test"

SLOT="0"
KEYWORDS="~amd64 ~x86"

IUSE="docs lint test"
DEPENDENCIES="docs? ( dev-python/sphinx[${PYTHON_USEDEP}] )
	docs? ( dev-python/sphinx-rtd-theme[${PYTHON_USEDEP}] )
	docs? ( dev-python/myst-parser[${PYTHON_USEDEP}] )
	lint? ( dev-python/ruff[${PYTHON_USEDEP}] )
	test? ( dev-python/modflow-devtools[${PYTHON_USEDEP}] )
	test? ( dev-python/coverage[${PYTHON_USEDEP}] )
	test? ( dev-python/flaky[${PYTHON_USEDEP}] )
	test? ( dev-python/filelock[${PYTHON_USEDEP}] )
	test? ( dev-python/meson[${PYTHON_USEDEP}] )
	test? ( dev-python/ninja[${PYTHON_USEDEP}] )
	test? ( dev-python/numpy[${PYTHON_USEDEP}] )
	test? ( dev-python/pandas[${PYTHON_USEDEP}] )
	test? ( >dev-python/pytest-8.1.0[${PYTHON_USEDEP}] )
	test? ( dev-python/pytest-cov[${PYTHON_USEDEP}] )
	test? ( dev-python/pytest-dotenv[${PYTHON_USEDEP}] )
	test? ( dev-python/pytest-xdist[${PYTHON_USEDEP}] )
	test? ( dev-python/pyyaml[${PYTHON_USEDEP}] )
	test? ( dev-python/syrupy[${PYTHON_USEDEP}] )"
BDEPEND="${DEPENDENCIES}"
RDEPEND="${DEPENDENCIES}"
