# automatically generated by g-sorcery
# please do not edit this file

EAPI=8

REALNAME="${PN}"
LITERALNAME="${PN}"
REALVERSION="${PV}"
DIGEST_SOURCES="yes"
PYTHON_COMPAT=( python{3_10,3_11,3_12} )
DISTUTILS_USE_PEP517=wheel

inherit python-r1 gs-pypi

DESCRIPTION="The python version of the libtraci API to communicate with the traffic simulation Eclipse SUMO [wheel]"

HOMEPAGE="https://sumo.dlr.de/docs/TraCI.html"
LICENSE="EPL-2.0"
SRC_URI="https://files.pythonhosted.org/packages/cp311/${REALNAME::1}/${REALNAME}/${REALNAME}-${REALVERSION}-cp311-cp311-macosx_12_0_universal2.whl"
SOURCEFILE="${REALNAME}-${REALVERSION}-cp311-cp311-macosx_12_0_universal2.whl"
RESTRICT="test"

SLOT="0"
KEYWORDS="~amd64 ~x86"

IUSE="+bin-wheel"
DEPENDENCIES="dev-python/traci[${PYTHON_USEDEP}]"
BDEPEND="${DEPENDENCIES}"
RDEPEND="${DEPENDENCIES}"
