# automatically generated by g-sorcery
# please do not edit this file

EAPI=8

REALNAME="${PN}"
REALVERSION="${PV}"
DIGEST_SOURCES="yes"
PYTHON_COMPAT=( python{3_9,3_10,3_11} )
DISTUTILS_USE_PEP517=standalone

inherit python-r1 gs-pypi

DESCRIPTION="FloPy is a Python package to create, run, and post-process MODFLOW-based models"

HOMEPAGE="https://github.com/modflowpy/flopy"
LICENSE="CC0-1.0"
SRC_URI="https://files.pythonhosted.org/packages/source/f/${REALNAME}/${REALNAME}-${REALVERSION}.tar.gz"
SOURCEFILE="${REALNAME}-${REALVERSION}.tar.gz"
RESTRICT="test"

SLOT="0"
KEYWORDS="~amd64 ~x86"

IUSE="doc lint optional test"
DEPENDENCIES="dev-python/numpy[${PYTHON_USEDEP}]
	dev-python/matplotlib[${PYTHON_USEDEP}]
	doc? ( dev-python/affine[${PYTHON_USEDEP}] )
	doc? ( dev-python/descartes[${PYTHON_USEDEP}] )
	doc? ( dev-python/geojson[${PYTHON_USEDEP}] )
	doc? ( dev-python/netcdf4[${PYTHON_USEDEP}] )
	doc? ( dev-python/pandas[${PYTHON_USEDEP}] )
	doc? ( dev-python/pyproj[${PYTHON_USEDEP}] )
	doc? ( dev-python/pyshp[${PYTHON_USEDEP}] )
	doc? ( dev-python/python-dateutil[${PYTHON_USEDEP}] )
	doc? ( dev-python/scipy[${PYTHON_USEDEP}] )
	doc? ( dev-python/shapely[${PYTHON_USEDEP}] )
	doc? ( dev-python/vtk[${PYTHON_USEDEP}] )
	doc? ( dev-python/xmipy[${PYTHON_USEDEP}] )
	doc? ( dev-python/ipython[${PYTHON_USEDEP}] )
	doc? ( dev-python/jupytext[${PYTHON_USEDEP}] )
	doc? ( dev-python/nbsphinx[${PYTHON_USEDEP}] )
	doc? ( dev-python/nbsphinx-link[${PYTHON_USEDEP}] )
	doc? ( dev-python/pydata-sphinx-theme[${PYTHON_USEDEP}] )
	doc? ( dev-python/PyYAML[${PYTHON_USEDEP}] )
	doc? ( dev-python/recommonmark[${PYTHON_USEDEP}] )
	doc? ( dev-python/rtds-action[${PYTHON_USEDEP}] )
	doc? ( dev-python/sphinx-rtd-theme[${PYTHON_USEDEP}] )
	doc? ( dev-python/fiona[${PYTHON_USEDEP}] )
	doc? ( dev-python/rasterio[${PYTHON_USEDEP}] )
	doc? ( dev-python/rasterstats[${PYTHON_USEDEP}] )
	lint? ( dev-python/black[${PYTHON_USEDEP}] )
	lint? ( dev-python/cffconvert[${PYTHON_USEDEP}] )
	lint? ( dev-python/flake8[${PYTHON_USEDEP}] )
	lint? ( dev-python/isort[${PYTHON_USEDEP}] )
	lint? ( dev-python/pylint[${PYTHON_USEDEP}] )
	optional? ( dev-python/affine[${PYTHON_USEDEP}] )
	optional? ( dev-python/descartes[${PYTHON_USEDEP}] )
	optional? ( dev-python/geojson[${PYTHON_USEDEP}] )
	optional? ( dev-python/netcdf4[${PYTHON_USEDEP}] )
	optional? ( dev-python/pandas[${PYTHON_USEDEP}] )
	optional? ( dev-python/pyproj[${PYTHON_USEDEP}] )
	optional? ( dev-python/pyshp[${PYTHON_USEDEP}] )
	optional? ( dev-python/python-dateutil[${PYTHON_USEDEP}] )
	optional? ( dev-python/scipy[${PYTHON_USEDEP}] )
	optional? ( dev-python/shapely[${PYTHON_USEDEP}] )
	optional? ( dev-python/vtk[${PYTHON_USEDEP}] )
	optional? ( dev-python/xmipy[${PYTHON_USEDEP}] )
	optional? ( dev-python/fiona[${PYTHON_USEDEP}] )
	optional? ( dev-python/rasterio[${PYTHON_USEDEP}] )
	optional? ( dev-python/rasterstats[${PYTHON_USEDEP}] )
	test? ( dev-python/black[${PYTHON_USEDEP}] )
	test? ( dev-python/cffconvert[${PYTHON_USEDEP}] )
	test? ( dev-python/flake8[${PYTHON_USEDEP}] )
	test? ( dev-python/isort[${PYTHON_USEDEP}] )
	test? ( dev-python/pylint[${PYTHON_USEDEP}] )
	test? ( dev-python/coverage[${PYTHON_USEDEP}] )
	test? ( dev-python/flaky[${PYTHON_USEDEP}] )
	test? ( dev-python/filelock[${PYTHON_USEDEP}] )
	test? ( dev-python/jupyter[${PYTHON_USEDEP}] )
	test? ( dev-python/jupytext[${PYTHON_USEDEP}] )
	test? ( dev-python/mfpymake[${PYTHON_USEDEP}] )
	test? ( dev-python/pytest[${PYTHON_USEDEP}] )
	test? ( dev-python/pytest-benchmark[${PYTHON_USEDEP}] )
	test? ( dev-python/pytest-cases[${PYTHON_USEDEP}] )
	test? ( dev-python/pytest-cov[${PYTHON_USEDEP}] )
	test? ( dev-python/pytest-dotenv[${PYTHON_USEDEP}] )
	test? ( dev-python/pytest-xdist[${PYTHON_USEDEP}] )"
BDEPEND="${DEPENDENCIES}"
RDEPEND="${DEPENDENCIES}"
