# automatically generated by g-sorcery
# please do not edit this file

EAPI=8

REALNAME="${PN}"
LITERALNAME="${PN}"
REALVERSION="${PV}"
DIGEST_SOURCES="yes"
PYTHON_COMPAT=( python{3_10,3_11,3_12} )
DISTUTILS_USE_PEP517=standalone

inherit python-r1 gs-pypi

DESCRIPTION="FloPy is a Python package to create, run, and post-process MODFLOW-based models"

HOMEPAGE=""
LICENSE="CC0-1.0"
SRC_URI="https://files.pythonhosted.org/packages/source/${REALNAME::1}/${REALNAME}/${REALNAME}-${REALVERSION}.tar.gz"
SOURCEFILE="${REALNAME}-${REALVERSION}.tar.gz"
RESTRICT="test"

SLOT="0"
KEYWORDS="~amd64 ~x86"

IUSE="dev doc lint optional test"
DEPENDENCIES=">=dev-python/numpy-1.20.3[${PYTHON_USEDEP}]
	>=dev-python/matplotlib-1.4.0[${PYTHON_USEDEP}]
	>=dev-python/pandas-2.0.0[${PYTHON_USEDEP}]
	dev? ( dev-python/flopy[${PYTHON_USEDEP}] )
	dev? ( dev-python/tach[${PYTHON_USEDEP}] )
	lint? ( dev-python/cffconvert[${PYTHON_USEDEP}] )
	lint? ( dev-python/codespell[${PYTHON_USEDEP}] )
	lint? ( dev-python/ruff[${PYTHON_USEDEP}] )
	test? ( dev-python/flopy[${PYTHON_USEDEP}] )
	test? ( >dev-python/coverage-7.6.5[${PYTHON_USEDEP}] )
	test? ( dev-python/flaky[${PYTHON_USEDEP}] )
	test? ( dev-python/filelock[${PYTHON_USEDEP}] )
	test? ( dev-python/jupyter[${PYTHON_USEDEP}] )
	test? ( >=dev-python/jupyter-client-8.4.0[${PYTHON_USEDEP}] )
	test? ( dev-python/jupytext[${PYTHON_USEDEP}] )
	test? ( dev-python/modflow-devtools[${PYTHON_USEDEP}] )
	test? ( >dev-python/pytest-8.1.0[${PYTHON_USEDEP}] )
	test? ( dev-python/pytest-benchmark[${PYTHON_USEDEP}] )
	test? ( dev-python/pytest-cov[${PYTHON_USEDEP}] )
	test? ( dev-python/pytest-dotenv[${PYTHON_USEDEP}] )
	test? ( dev-python/pytest-xdist[${PYTHON_USEDEP}] )
	test? ( >=dev-python/pyzmq-25.1.2[${PYTHON_USEDEP}] )
	test? ( dev-python/syrupy[${PYTHON_USEDEP}] )
	test? ( dev-python/virtualenv[${PYTHON_USEDEP}] )
	optional? ( dev-python/affine[${PYTHON_USEDEP}] )
	optional? ( dev-python/descartes[${PYTHON_USEDEP}] )
	optional? ( dev-python/fiona[${PYTHON_USEDEP}] )
	optional? ( dev-python/geojson[${PYTHON_USEDEP}] )
	optional? ( dev-python/geopandas[${PYTHON_USEDEP}] )
	optional? ( dev-python/GitPython[${PYTHON_USEDEP}] )
	optional? ( dev-python/imageio[${PYTHON_USEDEP}] )
	optional? ( dev-python/netcdf4[${PYTHON_USEDEP}] )
	optional? ( dev-python/pooch[${PYTHON_USEDEP}] )
	optional? ( dev-python/PyMetis[${PYTHON_USEDEP}] )
	optional? ( dev-python/pyproj[${PYTHON_USEDEP}] )
	optional? ( dev-python/pyshp[${PYTHON_USEDEP}] )
	optional? ( dev-python/pyvista[${PYTHON_USEDEP}] )
	optional? ( dev-python/rasterio[${PYTHON_USEDEP}] )
	optional? ( dev-python/rasterstats[${PYTHON_USEDEP}] )
	optional? ( dev-python/scipy[${PYTHON_USEDEP}] )
	optional? ( >=dev-python/shapely-2.0[${PYTHON_USEDEP}] )
	optional? ( dev-python/vtk[${PYTHON_USEDEP}] )
	optional? ( dev-python/xmipy[${PYTHON_USEDEP}] )
	doc? ( dev-python/flopy[${PYTHON_USEDEP}] )
	doc? ( dev-python/ipython[${PYTHON_USEDEP}] )
	doc? ( dev-python/jupytext[${PYTHON_USEDEP}] )
	doc? ( dev-python/myst-parser[${PYTHON_USEDEP}] )
	doc? ( <dev-python/nbconvert-7.14.0[${PYTHON_USEDEP}] )
	doc? ( dev-python/nbsphinx[${PYTHON_USEDEP}] )
	doc? ( dev-python/pyyaml[${PYTHON_USEDEP}] )
	doc? ( dev-python/rtds-action[${PYTHON_USEDEP}] )
	doc? ( ~dev-python/sphinx-7.1.2[${PYTHON_USEDEP}] )
	doc? ( >=dev-python/sphinx-rtd-theme-1.0[${PYTHON_USEDEP}] )"
BDEPEND="${DEPENDENCIES}"
RDEPEND="${DEPENDENCIES}"
