# automatically generated by g-sorcery
# please do not edit this file

EAPI=8

REALNAME="${PN}"
LITERALNAME="${PN}"
REALVERSION="${PV}"
DIGEST_SOURCES="yes"
PYTHON_COMPAT=( python{3_11,3_12,3_13,3_14} )
DISTUTILS_USE_PEP517=wheel

inherit python-r1 gs-pypi

DESCRIPTION="The pure python version of the TraCI API to communicate with the traffic simulation Eclipse SUMO [wheel]"

HOMEPAGE="https://sumo.dlr.de/docs/TraCI/Interfacing_TraCI_from_Python.html"
LICENSE="EPL-2.0"
SRC_URI="https://files.pythonhosted.org/packages/py3/${REALNAME::1}/${REALNAME}/${REALNAME}-${REALVERSION}-py3-none-any.whl"
SOURCEFILE="${REALNAME}-${REALVERSION}-py3-none-any.whl"
RESTRICT="test"

SLOT="0"
KEYWORDS="~amd64 ~x86"

IUSE=""
DEPENDENCIES="dev-python/sumolib[${PYTHON_USEDEP}]
	virtual/allow-pypi-wheels"
BDEPEND="${DEPENDENCIES}"
RDEPEND="${DEPENDENCIES}"
