# automatically generated by g-sorcery
# please do not edit this file

EAPI=8

REALNAME="${PN}"
LITERALNAME="${PN}"
REALVERSION="${PV}"
DIGEST_SOURCES="yes"
PYTHON_COMPAT=( python{3_10,3_11,3_12} )
DISTUTILS_USE_PEP517=standalone

inherit python-r1 gs-pypi

DESCRIPTION="Make massive MODFLOW models"

HOMEPAGE="https://gitlab.com/deltares/imod/imod-python"
LICENSE="MIT"
SRC_URI="https://files.pythonhosted.org/packages/source/${REALNAME::1}/${REALNAME}/${REALNAME}-${REALVERSION}.tar.gz"
SOURCEFILE="${REALNAME}-${REALVERSION}.tar.gz"
RESTRICT="test"

SLOT="0"
KEYWORDS="~amd64 ~x86"

IUSE="all dev"
DEPENDENCIES="dev-python/affine[${PYTHON_USEDEP}]
	dev-python/cftime[${PYTHON_USEDEP}]
	dev-python/dask[${PYTHON_USEDEP}]
	dev-python/fastcore[${PYTHON_USEDEP}]
	dev-python/Jinja2[${PYTHON_USEDEP}]
	dev-python/matplotlib[${PYTHON_USEDEP}]
	dev-python/numba[${PYTHON_USEDEP}]
	dev-python/numpy[${PYTHON_USEDEP}]
	dev-python/pandas[${PYTHON_USEDEP}]
	dev-python/pooch[${PYTHON_USEDEP}]
	dev-python/scipy[${PYTHON_USEDEP}]
	dev-python/tomli_w[${PYTHON_USEDEP}]
	dev-python/toolz[${PYTHON_USEDEP}]
	dev-python/tqdm[${PYTHON_USEDEP}]
	dev-python/xarray[${PYTHON_USEDEP}]
	dev-python/xugrid[${PYTHON_USEDEP}]
	all? ( dev-python/bottleneck[${PYTHON_USEDEP}] )
	all? ( dev-python/contextily[${PYTHON_USEDEP}] )
	all? ( dev-python/cytoolz[${PYTHON_USEDEP}] )
	all? ( dev-python/geopandas[${PYTHON_USEDEP}] )
	all? ( dev-python/pyvista[${PYTHON_USEDEP}] )
	all? ( dev-python/rasterio[${PYTHON_USEDEP}] )
	all? ( dev-python/rioxarray[${PYTHON_USEDEP}] )
	all? ( dev-python/shapely[${PYTHON_USEDEP}] )
	all? ( dev-python/tomli[${PYTHON_USEDEP}] )
	all? ( dev-python/zarr[${PYTHON_USEDEP}] )
	dev? ( dev-python/bottleneck[${PYTHON_USEDEP}] )
	dev? ( dev-python/contextily[${PYTHON_USEDEP}] )
	dev? ( dev-python/cytoolz[${PYTHON_USEDEP}] )
	dev? ( dev-python/geopandas[${PYTHON_USEDEP}] )
	dev? ( dev-python/pyvista[${PYTHON_USEDEP}] )
	dev? ( dev-python/rasterio[${PYTHON_USEDEP}] )
	dev? ( dev-python/rioxarray[${PYTHON_USEDEP}] )
	dev? ( dev-python/shapely[${PYTHON_USEDEP}] )
	dev? ( dev-python/tomli[${PYTHON_USEDEP}] )
	dev? ( dev-python/zarr[${PYTHON_USEDEP}] )
	dev? ( dev-python/black[${PYTHON_USEDEP}] )
	dev? ( dev-python/flake8[${PYTHON_USEDEP}] )
	dev? ( dev-python/flopy[${PYTHON_USEDEP}] )
	dev? ( dev-python/hypothesis[${PYTHON_USEDEP}] )
	dev? ( dev-python/mypy[${PYTHON_USEDEP}] )
	dev? ( dev-python/pydata-sphinx-theme[${PYTHON_USEDEP}] )
	dev? ( dev-python/pytest[${PYTHON_USEDEP}] )
	dev? ( dev-python/pytest-cov[${PYTHON_USEDEP}] )
	dev? ( dev-python/pytest-benchmark[${PYTHON_USEDEP}] )
	dev? ( dev-python/sphinx[${PYTHON_USEDEP}] )
	dev? ( dev-python/sphinx-gallery[${PYTHON_USEDEP}] )"
BDEPEND="${DEPENDENCIES}"
RDEPEND="${DEPENDENCIES}"
