# automatically generated by g-sorcery
# please do not edit this file

EAPI=8

REALNAME="${PN}"
LITERALNAME="${PN}"
REALVERSION="${PV}"
DIGEST_SOURCES="yes"
PYTHON_COMPAT=( python{3_10,3_11,3_12} )
DISTUTILS_USE_PEP517=standalone

inherit python-r1 gs-pypi

DESCRIPTION="Make massive MODFLOW models!"

HOMEPAGE="https://github.com/Deltares/imod-python"
LICENSE="MIT License  Copyright c Deltares  Permission is hereby granted, free of charge, to any person obtaining a copy of this software and associated documentation files the Software, to deal in the Software without restriction, including without limitation the rights to use, copy, modify, merge, publish, distribute, sublicense, and/or sell copies of the Software, and to permit persons to whom the Software is furnished to do so, subject to the following conditions:  The above copyright notice and this permission notice shall be included in all copies or substantial portions of the Software.  THE SOFTWARE IS PROVIDED AS IS, WITHOUT WARRANTY OF ANY KIND, EXPRESS OR IMPLIED, INCLUDING BUT NOT LIMITED TO THE WARRANTIES OF MERCHANTABILITY, FITNESS FOR A PARTICULAR PURPOSE AND NONINFRINGEMENT. IN NO EVENT SHALL THE AUTHORS OR COPYRIGHT HOLDERS BE LIABLE FOR ANY CLAIM, DAMAGES OR OTHER LIABILITY, WHETHER IN AN ACTION OF CONTRACT, TORT OR OTHERWISE, ARISING FROM, OUT OF OR IN CONNECTION WITH THE SOFTWARE OR THE USE OR OTHER DEALINGS IN THE SOFTWARE."
SRC_URI="https://files.pythonhosted.org/packages/source/${REALNAME::1}/${REALNAME}/${REALNAME}-${REALVERSION}.tar.gz"
SOURCEFILE="${REALNAME}-${REALVERSION}.tar.gz"
RESTRICT="test"

SLOT="0"
KEYWORDS="~amd64 ~x86"

IUSE="all"
DEPENDENCIES="dev-python/affine[${PYTHON_USEDEP}]
	>=dev-python/cftime-1.0[${PYTHON_USEDEP}]
	dev-python/dask[${PYTHON_USEDEP}]
	dev-python/fastcore[${PYTHON_USEDEP}]
	dev-python/jinja[${PYTHON_USEDEP}]
	dev-python/matplotlib[${PYTHON_USEDEP}]
	dev-python/numba[${PYTHON_USEDEP}]
	dev-python/numpy[${PYTHON_USEDEP}]
	dev-python/pandas[${PYTHON_USEDEP}]
	dev-python/pooch[${PYTHON_USEDEP}]
	dev-python/scipy[${PYTHON_USEDEP}]
	dev-python/tomli-w[${PYTHON_USEDEP}]
	dev-python/toolz[${PYTHON_USEDEP}]
	dev-python/tqdm[${PYTHON_USEDEP}]
	>=dev-python/xarray-2023.4.0[${PYTHON_USEDEP}]
	dev-python/xugrid[${PYTHON_USEDEP}]
	all? ( dev-python/bottleneck[${PYTHON_USEDEP}] )
	all? ( dev-python/contextily[${PYTHON_USEDEP}] )
	all? ( dev-python/cytoolz[${PYTHON_USEDEP}] )
	all? ( dev-python/geopandas[${PYTHON_USEDEP}] )
	all? ( dev-python/pyvista[${PYTHON_USEDEP}] )
	all? ( dev-python/rasterio[${PYTHON_USEDEP}] )
	all? ( dev-python/rioxarray[${PYTHON_USEDEP}] )
	all? ( >=dev-python/shapely-1.8[${PYTHON_USEDEP}] )
	all? ( >=dev-python/tomli-1.1.0[${PYTHON_USEDEP}] )
	all? ( dev-python/zarr[${PYTHON_USEDEP}] )"
BDEPEND="${DEPENDENCIES}"
RDEPEND="${DEPENDENCIES}"
